Version 4
SHEET 1 1192 1040
WIRE 96 64 64 64
WIRE 192 64 96 64
WIRE 96 112 96 64
WIRE 96 112 64 112
WIRE 16 144 -80 144
WIRE 192 160 192 144
WIRE -80 176 -80 144
WIRE 64 176 64 160
WIRE -80 288 -80 256
FLAG 192 160 0
FLAG 64 176 0
FLAG -80 288 0
SYMBOL pmos4 16 64 R0
SYMATTR InstName M1
SYMBOL voltage 192 48 R0
SYMATTR InstName Vds
SYMATTR Value -1.8V
SYMBOL voltage -80 160 R0
WINDOW 123 0 0 Left 0
WINDOW 39 0 0 Left 0
SYMATTR InstName Vgs
SYMATTR Value -1.8
TEXT 0 296 Left 2 !.dc Vgs 0 -1.8 -0.1
TEXT 280 -40 Left 0 !* LOT: n94s WAF: 08\n* Temperature_parameters=Default\n.MODEL pmos pmos LEVEL = 8\n*VERSION = 3.11 TNOM = 27 TOX = 5.8E-9\n*XJ = 1E-7 NCH = 4.1589E17 VTH0 = -0.6158735\n*K1 = 0.4598379 K2 = 0.0399415 K3 = 0\n*K3B = 8.7410723 W0 = 1E-6 NLX = 1E-9\n*DVT0W = 0 DVT1W = 0 DVT2W = 0\n*DVT0 = 0.6249485 DVT1 = 0.203296 DVT2 = -0.0513763\n*U0 = 158.67524 UA = 2.200024E-10 UB = 4.457415E-18\n*UC = 1.02138E-10 VSAT = 1.85064E5 A0 = 1.3826397\n*AGS = 0.4192977 B0 = 2.844099E-6 B1 = 5E-6\n*KETA = 0.0208695 A1 = 0 A2 = 1\n*RDSW = 968.5463 PRWG = -0.1026483 PRWB = -0.325\n*WR = 1 WINT = 2.748811E-8 LINT = 8.71907E-9\n*XL = -3E-8 XW = 0 DWG = -4.087585E-8\n*DWB = 2.032008E-8 VOFF = -0.15 NFACTOR = 1.5460516\n*CIT = 0 CDSC = 1.413317E-4 CDSCD = 0\n*CDSCB = 0 ETA0 = 0.3241245 ETAB = -0.1842\n*DSUB = 1.1287138 PCLM = 5.2654567 PDIBLC1 = 4.228338E-3\n*PDIBLC2 = 1.214519E-3 PDIBLCB = 2.37525E-3 DROUT = 0\n*PSCBE1 = 3.021456E10 PSCBE2 = 3.037042E-7 PVAG = 8.9564294\n*DELTA = 0.01 MOBMOD = 1 PRT = 0\n*UTE = -1.5 KT1 = -0.11 KT1L = 0\n*KT2 = 0.022 UA1 = 4.31E-9 UB1 = -7.61E-18\n*UC1 = -5.6E-11 AT = 3.3E4 WL = 0\n*WLN = 1 WW = 0 WWN = 1\n*WWL = 0 LL = 0 LLN = 1\n*LW = 0 LWN = 1 LWL = 0\n*CAPMOD = 2 XPART = 0.4 CGDO = 5.59E-10\n*CGSO = 5.59E-10 CGBO = 0 CJ = 1.882857E-3\n*PB = 0.9891317 MJ = 0.4679789 CJSW = 3.67196E-10\n*PBSW = 0.9884654 MJSW = 0.3562128 PVTH0 = 3.923756E-3\n*PRDSW = 15.3953053 PK2 = 2.061759E-3 WKETA = 4.10049E-3\n*LKETA = -0.0232426 LVSAT = 1.257E5
